[Format]      =  4.0
[Frequency]   =  0
[Precision]   =  1e-008
[MinAngle]    =  30
[DoSmartMesh] =  1
[Depth]       =  1
[LengthUnits] =  centimeters
[ProblemType] =  axisymmetric
[Coordinates] =  cartesian
[ACSolver]    =  0
[PrevType]    =  0
[PrevSoln]    =  ""
[Comment]     =  "Add comments here."
[PointProps]   = 0
[BdryProps]   = 0
[BlockProps]  = 4
  <BeginBlock>
    <BlockName> = "1010 Steel (mi100)"
    <Mu_x> = 100
    <Mu_y> = 100
    <H_c> = 0
    <H_cAngle> = 0
    <J_re> = 0
    <J_im> = 0
    <Sigma> = 0
    <d_lam> = 0
    <Phi_h> = 1
    <Phi_hx> = 0
    <Phi_hy> = 0
    <LamType> = 0
    <LamFill> = 1
    <NStrands> = 0
    <WireD> = 0
    <BHPoints> = 0
  <EndBlock>
  <BeginBlock>
    <BlockName> = "1010 Steel (linear)"
    <Mu_x> = 902.60000000000002
    <Mu_y> = 902.60000000000002
    <H_c> = 0
    <H_cAngle> = 0
    <J_re> = 0
    <J_im> = 0
    <Sigma> = 0
    <d_lam> = 0
    <Phi_h> = 0
    <Phi_hx> = 1
    <Phi_hy> = 0
    <LamType> = 0
    <LamFill> = 1
    <NStrands> = 0
    <WireD> = 0
    <BHPoints> = 0
  <EndBlock>
  <BeginBlock>
    <BlockName> = "Air"
    <Mu_x> = 1
    <Mu_y> = 1
    <H_c> = 0
    <H_cAngle> = 0
    <J_re> = 0
    <J_im> = 0
    <Sigma> = 0
    <d_lam> = 0
    <Phi_h> = 0
    <Phi_hx> = 0
    <Phi_hy> = 0
    <LamType> = 0
    <LamFill> = 1
    <NStrands> = 0
    <WireD> = 0
    <BHPoints> = 0
  <EndBlock>
  <BeginBlock>
    <BlockName> = "22 AWG"
    <Mu_x> = 1
    <Mu_y> = 1
    <H_c> = 0
    <H_cAngle> = 0
    <J_re> = 0
    <J_im> = 0
    <Sigma> = 58
    <d_lam> = 0
    <Phi_h> = 0
    <Phi_hx> = 0
    <Phi_hy> = 0
    <LamType> = 3
    <LamFill> = 1
    <NStrands> = 1
    <WireD> = 0.64399170069399603
    <BHPoints> = 0
  <EndBlock>
[CircuitProps]  = 1
  <BeginCircuit>
    <CircuitName> = "Coil"
    <TotalAmps_re> = 2
    <TotalAmps_im> = 0
    <CircuitType> = 1
  <EndCircuit>
[NumPoints] = 16
0	-0.34999999999999998	0	0
0	10.65	0	0
0.80000000000000004	10.65	0	0
0.80000000000000004	0	0	0
0.80000000000000004	-0.34999999999999998	0	0
2.75	0	0	0
2.75	9	0	0
0.80000000000000004	9	0	0
2.7799999999999998	9	0	0
2.7799999999999998	9.0299999999999994	0	0
0.80000000000000004	9.0299999999999994	0	0
2.7799999999999998	0	0	0
0	-4.0499999999999998	0	0
0	-2.3500000000000001	0	0
0	-16.5	0	0
0	16.5	0	0
[NumSegments] = 18
1	2	-1	0	0	0
2	10	-1	0	0	0
3	4	-1	0	0	0
4	0	-1	0	0	0
7	3	-1	0	0	0
3	5	-1	0	0	0
5	6	-1	0	0	0
6	7	-1	0	0	0
10	7	-1	0	0	0
8	9	-1	0	0	0
9	10	-1	0	0	0
11	8	-1	0	0	0
5	11	-1	0	0	0
12	13	-1	0	0	0
14	12	-1	0	0	0
13	0	-1	0	0	0
0	1	-1	0	0	0
1	15	-1	0	0	0
[NumArcSegments] = 2
12	13	180	1	0	0	0	1
14	15	180	40	0	0	0	1
[NumHoles] = 0
[NumBlockLabels] = 5
0.40000000000000002	5.5	1	-1	0	0	0	1	0
1.7749999999999999	4.5	4	0.10000000000000001	1	0	0	2000	0
2.7650000000000001	4.5	2	-1	0	0	0	1	0
0.255	-3.2000000000000002	2	-1	0	0	4	1	0
8.25	0	3	-1	0	0	0	1	0
